REMARK  6 active torsions:
REMARK  status: ('A' for Active; 'I' for Inactive)
REMARK    1  A    between atoms: C2_4  and  C3_5 
REMARK    2  A    between atoms: C3_5  and  C4_6 
REMARK    3  A    between atoms: C7_9  and  O2_10 
REMARK    4  A    between atoms: C11_16  and  C12_17 
REMARK    5  A    between atoms: C12_17  and  C13_18 
REMARK    6  A    between atoms: C16_21  and  O4_22 
ROOT
HETATM    1  O1  UNL     1       0.341  -0.655  -2.987  1.00  0.00    -0.271 OA
HETATM    2  C1  UNL     1       0.126  -0.169  -1.881  1.00  0.00     0.241 C 
HETATM    3  N1  UNL     1       1.090  -0.212  -0.898  1.00  0.00    -0.346 N 
HETATM    4  C2  UNL     1       1.149   0.848   0.111  1.00  0.00     0.180 C 
HETATM    5  C10 UNL     1      -0.251   1.285   0.590  1.00  0.00     0.241 C 
HETATM    6  O3  UNL     1      -0.489   1.769   1.691  1.00  0.00    -0.271 OA
HETATM    7  N2  UNL     1      -1.202   1.325  -0.405  1.00  0.00    -0.346 N 
HETATM    8  C11 UNL     1      -1.271   0.253  -1.400  1.00  0.00     0.180 C 
HETATM    9  H1  UNL     1       1.985  -0.506  -1.276  1.00  0.00     0.163 HD
HETATM   10  H10 UNL     1      -2.096   1.675  -0.076  1.00  0.00     0.163 HD
ENDROOT
BRANCH   8  11
HETATM   11  C12 UNL     1      -1.980  -1.000  -0.854  1.00  0.00     0.073 C 
BRANCH  11  12
HETATM   12  C13 UNL     1      -3.431  -0.747  -0.513  1.00  0.00    -0.056 A 
HETATM   13  C14 UNL     1      -3.817  -0.487   0.810  1.00  0.00     0.010 A 
HETATM   14  C15 UNL     1      -5.153  -0.226   1.121  1.00  0.00     0.037 A 
HETATM   15  C16 UNL     1      -6.104  -0.225   0.106  1.00  0.00     0.065 A 
HETATM   16  C17 UNL     1      -5.739  -0.480  -1.211  1.00  0.00     0.037 A 
HETATM   17  C18 UNL     1      -4.404  -0.740  -1.522  1.00  0.00     0.010 A 
BRANCH  15  18
HETATM   18  O4  UNL     1      -7.419   0.025   0.364  1.00  0.00    -0.361 OA
HETATM   19  H16 UNL     1      -7.525   0.168   1.318  1.00  0.00     0.217 HD
ENDBRANCH  15  18
ENDBRANCH  11  12
ENDBRANCH   8  11
BRANCH   4  20
HETATM   20  C3  UNL     1       2.016   0.446   1.315  1.00  0.00     0.073 C 
BRANCH  20  21
HETATM   21  C4  UNL     1       3.462   0.202   0.946  1.00  0.00    -0.056 A 
HETATM   22  C5  UNL     1       4.334   1.282   0.742  1.00  0.00     0.010 A 
HETATM   23  C6  UNL     1       5.665   1.059   0.379  1.00  0.00     0.037 A 
HETATM   24  C7  UNL     1       6.122  -0.245   0.220  1.00  0.00     0.065 A 
HETATM   25  C8  UNL     1       5.272  -1.326   0.419  1.00  0.00     0.037 A 
HETATM   26  C9  UNL     1       3.943  -1.105   0.783  1.00  0.00     0.010 A 
BRANCH  24  27
HETATM   27  O2  UNL     1       7.411  -0.508  -0.134  1.00  0.00    -0.361 OA
HETATM   28  H7  UNL     1       7.886   0.334  -0.226  1.00  0.00     0.217 HD
ENDBRANCH  24  27
ENDBRANCH  20  21
ENDBRANCH   4  20
TORSDOF 6
