REMARK  6 active torsions:
REMARK  status: ('A' for Active; 'I' for Inactive)
REMARK    1  A    between atoms: C7_7  and  O1_8 
REMARK    2  A    between atoms: O1_8  and  C8_9 
REMARK    3  A    between atoms: C8_9  and  C9_10 
REMARK    4  A    between atoms: C9_10  and  O2_11 
REMARK    5  A    between atoms: C9_10  and  C10_12 
REMARK    6  A    between atoms: C10_12  and  O3_13 
ROOT
HETATM    1  C1  UNL     1      -2.572   1.221   1.136  1.00  0.00     0.051 C 
HETATM    2  C2  UNL     1      -1.837  -0.015   1.511  1.00  0.00    -0.029 A 
HETATM    3  C3  UNL     1      -2.296  -0.825   2.529  1.00  0.00     0.009 A 
HETATM    4  C4  UNL     1      -1.582  -1.969   2.848  1.00  0.00     0.001 A 
HETATM    5  C5  UNL     1      -0.435  -2.255   2.135  1.00  0.00     0.003 A 
HETATM    6  C6  UNL     1       0.013  -1.427   1.112  1.00  0.00     0.037 A 
HETATM    7  C7  UNL     1      -0.687  -0.293   0.789  1.00  0.00     0.074 A 
ENDROOT
BRANCH   7   8
HETATM    8  O1  UNL     1      -0.245   0.532  -0.227  1.00  0.00    -0.348 OA
BRANCH   8   9
HETATM    9  C8  UNL     1       0.937   0.172  -0.910  1.00  0.00     0.209 C 
BRANCH   9  10
HETATM   10  C9  UNL     1       1.241   1.202  -1.974  1.00  0.00     0.166 C 
BRANCH  10  11
HETATM   11  O2  UNL     1       0.241   1.323  -2.911  1.00  0.00    -0.391 OA
HETATM   12  H11 UNL     1       0.631   1.532  -3.815  1.00  0.00     0.210 HD
ENDBRANCH  10  11
BRANCH  10  13
HETATM   13  C10 UNL     1       2.548   0.816  -2.617  1.00  0.00     0.198 C 
BRANCH  13  14
HETATM   14  O3  UNL     1       3.520   0.707  -1.631  1.00  0.00    -0.398 OA
HETATM   15  H14 UNL     1       3.562  -0.203  -1.245  1.00  0.00     0.209 HD
ENDBRANCH  13  14
ENDBRANCH  10  13
ENDBRANCH   9  10
ENDBRANCH   8   9
ENDBRANCH   7   8
TORSDOF 6
