MODEL 1
REMARK VINA RESULT:     -13.1      0.000      0.000
REMARK  7 active torsions:
REMARK  status: ('A' for Active; 'I' for Inactive)
REMARK    1  A    between atoms: N1_4  and  C4_5 
REMARK    2  A    between atoms: C4_5  and  C5_6 
REMARK    3  A    between atoms: C5_6  and  N2_8 
REMARK    4  A    between atoms: C11_16  and  C12_17 
REMARK    5  A    between atoms: C12_17  and  C13_18 
REMARK    6  A    between atoms: C21_28  and  C22_29 
REMARK    7  A    between atoms: C22_29  and  N5_30 
ROOT
HETATM    1  C1  UNL     1      61.281  81.504  12.986  1.00  0.00     0.044 C 
HETATM    2  C2  UNL     1      61.275  82.770  13.812  1.00  0.00     0.233 C 
HETATM    3  C3  UNL     1      60.043  83.568  13.681  1.00  0.00     0.153 C 
HETATM    4  N1  UNL     1      60.107  84.971  13.859  1.00  0.00    -0.394 N 
HETATM    5  C21 UNL     1      61.348  85.622  13.654  1.00  0.00     0.125 C 
HETATM    6  C31 UNL     1      62.492  84.792  14.185  1.00  0.00     0.296 C 
HETATM    7  N6  UNL     1      62.518  83.474  13.563  1.00  0.00     0.091 N 
HETATM    8  H33 UNL     1      63.316  82.954  14.039  1.00  0.00     0.316 HD
ENDROOT
BRANCH   4   9
HETATM    9  C4  UNL     1      58.980  85.676  13.275  1.00  0.00     0.220 C 
BRANCH   9  10
HETATM   10  C5  UNL     1      58.607  85.190  11.959  1.00  0.00     0.241 C 
HETATM   11  O1  UNL     1      57.454  84.675  11.849  1.00  0.00    -0.271 OA
BRANCH  10  12
HETATM   12  N2  UNL     1      59.417  85.248  10.815  1.00  0.00    -0.313 N 
HETATM   13  C6  UNL     1      60.344  86.357  10.548  1.00  0.00     0.147 C 
HETATM   14  C7  UNL     1      60.671  86.308   9.094  1.00  0.00     0.018 C 
HETATM   15  C8  UNL     1      59.811  87.262   8.276  1.00  0.00     0.023 C 
HETATM   16  C9  UNL     1      62.113  86.631   8.824  1.00  0.00     0.023 C 
HETATM   17  C10 UNL     1      60.290  84.931   8.693  1.00  0.00     0.093 A 
HETATM   18  N3  UNL     1      60.540  84.251   7.570  1.00  0.00    -0.151 NA
HETATM   19  C20 UNL     1      59.563  84.355   9.717  1.00  0.00     0.066 A 
HETATM   20  N4  UNL     1      60.098  83.008   7.404  1.00  0.00    -0.154 NA
HETATM   21  C11 UNL     1      59.385  82.370   8.343  1.00  0.00     0.063 A 
HETATM   22  C19 UNL     1      59.122  83.074   9.518  1.00  0.00     0.061 A 
BRANCH  21  23
HETATM   23  C12 UNL     1      58.893  80.984   8.170  1.00  0.00     0.102 C 
BRANCH  23  24
HETATM   24  C13 UNL     1      59.564  80.096   9.164  1.00  0.00    -0.014 A 
HETATM   25  C14 UNL     1      60.900  79.796   9.048  1.00  0.00     0.013 A 
HETATM   26  C15 UNL     1      61.508  78.976   9.969  1.00  0.00     0.043 A 
HETATM   27  C16 UNL     1      60.757  78.462  11.004  1.00  0.00     0.119 A 
HETATM   28  F1  UNL     1      61.376  77.654  11.902  1.00  0.00    -0.206 F 
HETATM   29  C17 UNL     1      59.402  78.756  11.135  1.00  0.00     0.085 A 
HETATM   30  C18 UNL     1      58.832  79.580  10.194  1.00  0.00     0.126 A 
HETATM   31  F2  UNL     1      57.503  79.907  10.271  1.00  0.00    -0.205 F 
ENDBRANCH  23  24
ENDBRANCH  21  23
ENDBRANCH  10  12
ENDBRANCH   9  10
ENDBRANCH   4   9
BRANCH   5  32
HETATM   32  C22 UNL     1      61.367  86.947  14.380  1.00  0.00     0.153 C 
BRANCH  32  33
HETATM   33  N5  UNL     1      62.436  87.829  13.939  1.00  0.00    -0.342 N 
HETATM   34  C23 UNL     1      62.810  88.178  12.588  1.00  0.00     0.169 A 
HETATM   35  C24 UNL     1      63.906  89.170  12.713  1.00  0.00     0.014 A 
HETATM   36  C25 UNL     1      64.633  89.883  11.760  1.00  0.00     0.125 A 
HETATM   37  C29 UNL     1      64.216  89.363  14.040  1.00  0.00     0.043 A 
HETATM   38  F3  UNL     1      64.301  89.673  10.460  1.00  0.00    -0.205 F 
HETATM   39  C26 UNL     1      65.634  90.752  12.143  1.00  0.00     0.043 A 
HETATM   40  C27 UNL     1      65.959  90.957  13.467  1.00  0.00     0.004 A 
HETATM   41  C28 UNL     1      65.238  90.252  14.405  1.00  0.00     0.018 A 
HETATM   42  C30 UNL     1      63.306  88.528  14.811  1.00  0.00     0.254 A 
HETATM   43  O2  UNL     1      63.342  88.479  16.084  1.00  0.00    -0.267 OA
ENDBRANCH  32  33
ENDBRANCH   5  32
TORSDOF 6
ENDMDL
MODEL 2
REMARK VINA RESULT:     -13.0      2.204      4.326
REMARK  7 active torsions:
REMARK  status: ('A' for Active; 'I' for Inactive)
REMARK    1  A    between atoms: N1_4  and  C4_5 
REMARK    2  A    between atoms: C4_5  and  C5_6 
REMARK    3  A    between atoms: C5_6  and  N2_8 
REMARK    4  A    between atoms: C11_16  and  C12_17 
REMARK    5  A    between atoms: C12_17  and  C13_18 
REMARK    6  A    between atoms: C21_28  and  C22_29 
REMARK    7  A    between atoms: C22_29  and  N5_30 
ROOT
HETATM    1  C1  UNL     1      63.127  80.794  13.812  1.00  0.00     0.044 C 
HETATM    2  C2  UNL     1      62.603  82.131  14.284  1.00  0.00     0.233 C 
HETATM    3  C3  UNL     1      61.295  82.500  13.716  1.00  0.00     0.153 C 
HETATM    4  N1  UNL     1      60.974  83.869  13.555  1.00  0.00    -0.394 N 
HETATM    5  C21 UNL     1      62.033  84.804  13.451  1.00  0.00     0.125 C 
HETATM    6  C31 UNL     1      63.162  84.451  14.389  1.00  0.00     0.296 C 
HETATM    7  N6  UNL     1      63.663  83.108  14.127  1.00  0.00     0.091 N 
HETATM    8  H33 UNL     1      64.410  82.937  14.867  1.00  0.00     0.316 HD
ENDROOT
BRANCH   4   9
HETATM    9  C4  UNL     1      59.904  84.099  12.600  1.00  0.00     0.220 C 
BRANCH   9  10
HETATM   10  C5  UNL     1      58.871  83.079  12.624  1.00  0.00     0.241 C 
HETATM   11  O1  UNL     1      57.862  83.309  13.355  1.00  0.00    -0.271 OA
BRANCH  10  12
HETATM   12  N2  UNL     1      58.908  81.873  11.908  1.00  0.00    -0.313 N 
HETATM   13  C6  UNL     1      58.502  80.586  12.489  1.00  0.00     0.147 C 
HETATM   14  C7  UNL     1      59.089  79.518  11.630  1.00  0.00     0.018 C 
HETATM   15  C8  UNL     1      60.401  78.983  12.188  1.00  0.00     0.023 C 
HETATM   16  C9  UNL     1      58.153  78.357  11.445  1.00  0.00     0.023 C 
HETATM   17  C10 UNL     1      59.413  80.221  10.364  1.00  0.00     0.093 A 
HETATM   18  N3  UNL     1      59.769  79.742   9.168  1.00  0.00    -0.151 NA
HETATM   19  C20 UNL     1      59.299  81.582  10.571  1.00  0.00     0.066 A 
HETATM   20  N4  UNL     1      60.023  80.556   8.147  1.00  0.00    -0.154 NA
HETATM   21  C11 UNL     1      59.938  81.889   8.256  1.00  0.00     0.063 A 
HETATM   22  C19 UNL     1      59.566  82.395   9.502  1.00  0.00     0.061 A 
BRANCH  21  23
HETATM   23  C12 UNL     1      60.215  82.803   7.124  1.00  0.00     0.102 C 
BRANCH  23  24
HETATM   24  C13 UNL     1      60.902  84.025   7.635  1.00  0.00    -0.014 A 
HETATM   25  C14 UNL     1      62.252  84.017   7.890  1.00  0.00     0.013 A 
HETATM   26  C15 UNL     1      62.875  85.148   8.362  1.00  0.00     0.043 A 
HETATM   27  C16 UNL     1      62.124  86.284   8.574  1.00  0.00     0.119 A 
HETATM   28  F1  UNL     1      62.758  87.390   9.041  1.00  0.00    -0.206 F 
HETATM   29  C17 UNL     1      60.755  86.309   8.320  1.00  0.00     0.085 A 
HETATM   30  C18 UNL     1      60.171  85.157   7.849  1.00  0.00     0.126 A 
HETATM   31  F2  UNL     1      58.826  85.121   7.580  1.00  0.00    -0.205 F 
ENDBRANCH  23  24
ENDBRANCH  21  23
ENDBRANCH  10  12
ENDBRANCH   9  10
ENDBRANCH   4   9
BRANCH   5  32
HETATM   32  C22 UNL     1      61.545  86.186  13.819  1.00  0.00     0.153 C 
BRANCH  32  33
HETATM   33  N5  UNL     1      62.490  87.238  13.482  1.00  0.00    -0.342 N 
HETATM   34  C23 UNL     1      62.778  87.802  12.184  1.00  0.00     0.169 A 
HETATM   35  C24 UNL     1      63.756  88.892  12.422  1.00  0.00     0.014 A 
HETATM   36  C25 UNL     1      64.365  89.805  11.560  1.00  0.00     0.125 A 
HETATM   37  C29 UNL     1      64.086  88.945  13.757  1.00  0.00     0.043 A 
HETATM   38  F3  UNL     1      64.017  89.729  10.250  1.00  0.00    -0.205 F 
HETATM   39  C26 UNL     1      65.271  90.728  12.039  1.00  0.00     0.043 A 
HETATM   40  C27 UNL     1      65.614  90.795  13.373  1.00  0.00     0.004 A 
HETATM   41  C28 UNL     1      65.010  89.893  14.220  1.00  0.00     0.018 A 
HETATM   42  C30 UNL     1      63.303  87.915  14.425  1.00  0.00     0.254 A 
HETATM   43  O2  UNL     1      63.386  87.704  15.680  1.00  0.00    -0.267 OA
ENDBRANCH  32  33
ENDBRANCH   5  32
TORSDOF 6
ENDMDL
MODEL 3
REMARK VINA RESULT:     -12.7      2.522      5.089
REMARK  7 active torsions:
REMARK  status: ('A' for Active; 'I' for Inactive)
REMARK    1  A    between atoms: N1_4  and  C4_5 
REMARK    2  A    between atoms: C4_5  and  C5_6 
REMARK    3  A    between atoms: C5_6  and  N2_8 
REMARK    4  A    between atoms: C11_16  and  C12_17 
REMARK    5  A    between atoms: C12_17  and  C13_18 
REMARK    6  A    between atoms: C21_28  and  C22_29 
REMARK    7  A    between atoms: C22_29  and  N5_30 
ROOT
HETATM    1  C1  UNL     1      56.967  86.052  13.707  1.00  0.00     0.044 C 
HETATM    2  C2  UNL     1      58.473  86.164  13.624  1.00  0.00     0.233 C 
HETATM    3  C3  UNL     1      59.162  84.878  13.425  1.00  0.00     0.153 C 
HETATM    4  N1  UNL     1      60.479  84.717  13.919  1.00  0.00    -0.394 N 
HETATM    5  C21 UNL     1      60.906  85.543  14.988  1.00  0.00     0.125 C 
HETATM    6  C31 UNL     1      60.380  86.950  14.830  1.00  0.00     0.296 C 
HETATM    7  N6  UNL     1      58.925  86.961  14.748  1.00  0.00     0.091 N 
HETATM    8  H33 UNL     1      58.660  87.980  14.585  1.00  0.00     0.316 HD
ENDROOT
BRANCH   4   9
HETATM    9  C4  UNL     1      60.869  83.327  14.072  1.00  0.00     0.220 C 
BRANCH   9  10
HETATM   10  C5  UNL     1      61.388  82.729  12.855  1.00  0.00     0.241 C 
HETATM   11  O1  UNL     1      62.576  83.033  12.535  1.00  0.00    -0.271 OA
BRANCH  10  12
HETATM   12  N2  UNL     1      60.680  81.852  12.019  1.00  0.00    -0.313 N 
HETATM   13  C6  UNL     1      59.888  80.725  12.530  1.00  0.00     0.147 C 
HETATM   14  C7  UNL     1      59.676  79.791  11.388  1.00  0.00     0.018 C 
HETATM   15  C8  UNL     1      60.686  78.651  11.376  1.00  0.00     0.023 C 
HETATM   16  C9  UNL     1      58.298  79.193  11.391  1.00  0.00     0.023 C 
HETATM   17  C10 UNL     1      59.953  80.626  10.193  1.00  0.00     0.093 A 
HETATM   18  N3  UNL     1      59.729  80.392   8.896  1.00  0.00    -0.151 NA
HETATM   19  C20 UNL     1      60.537  81.809  10.604  1.00  0.00     0.066 A 
HETATM   20  N4  UNL     1      60.061  81.285   7.967  1.00  0.00    -0.154 NA
HETATM   21  C11 UNL     1      60.633  82.458   8.274  1.00  0.00     0.063 A 
HETATM   22  C19 UNL     1      60.868  82.708   9.626  1.00  0.00     0.061 A 
BRANCH  21  23
HETATM   23  C12 UNL     1      61.001  83.460   7.247  1.00  0.00     0.102 C 
BRANCH  23  24
HETATM   24  C13 UNL     1      60.960  84.823   7.853  1.00  0.00    -0.014 A 
HETATM   25  C14 UNL     1      59.772  85.502   7.974  1.00  0.00     0.013 A 
HETATM   26  C15 UNL     1      59.745  86.758   8.532  1.00  0.00     0.043 A 
HETATM   27  C16 UNL     1      60.926  87.321   8.966  1.00  0.00     0.119 A 
HETATM   28  F1  UNL     1      60.878  88.562   9.513  1.00  0.00    -0.206 F 
HETATM   29  C17 UNL     1      62.139  86.646   8.850  1.00  0.00     0.085 A 
HETATM   30  C18 UNL     1      62.122  85.392   8.287  1.00  0.00     0.126 A 
HETATM   31  F2  UNL     1      63.285  84.678   8.147  1.00  0.00    -0.205 F 
ENDBRANCH  23  24
ENDBRANCH  21  23
ENDBRANCH  10  12
ENDBRANCH   9  10
ENDBRANCH   4   9
BRANCH   5  32
HETATM   32  C22 UNL     1      62.414  85.619  15.018  1.00  0.00     0.153 C 
BRANCH  32  33
HETATM   33  N5  UNL     1      62.945  86.794  14.347  1.00  0.00    -0.342 N 
HETATM   34  C23 UNL     1      63.732  87.867  14.909  1.00  0.00     0.169 A 
HETATM   35  C24 UNL     1      64.074  88.758  13.773  1.00  0.00     0.014 A 
HETATM   36  C25 UNL     1      64.836  89.924  13.697  1.00  0.00     0.125 A 
HETATM   37  C29 UNL     1      63.485  88.295  12.618  1.00  0.00     0.043 A 
HETATM   38  F3  UNL     1      65.405  90.354  14.852  1.00  0.00    -0.205 F 
HETATM   39  C26 UNL     1      64.990  90.588  12.498  1.00  0.00     0.043 A 
HETATM   40  C27 UNL     1      64.407  90.139  11.331  1.00  0.00     0.004 A 
HETATM   41  C28 UNL     1      63.655  88.987  11.410  1.00  0.00     0.018 A 
HETATM   42  C30 UNL     1      62.778  87.071  12.968  1.00  0.00     0.254 A 
HETATM   43  O2  UNL     1      62.120  86.397  12.109  1.00  0.00    -0.267 OA
ENDBRANCH  32  33
ENDBRANCH   5  32
TORSDOF 6
ENDMDL
MODEL 4
REMARK VINA RESULT:     -12.4      1.446      1.873
REMARK  7 active torsions:
REMARK  status: ('A' for Active; 'I' for Inactive)
REMARK    1  A    between atoms: N1_4  and  C4_5 
REMARK    2  A    between atoms: C4_5  and  C5_6 
REMARK    3  A    between atoms: C5_6  and  N2_8 
REMARK    4  A    between atoms: C11_16  and  C12_17 
REMARK    5  A    between atoms: C12_17  and  C13_18 
REMARK    6  A    between atoms: C21_28  and  C22_29 
REMARK    7  A    between atoms: C22_29  and  N5_30 
ROOT
HETATM    1  C1  UNL     1      61.520  81.970  13.051  1.00  0.00     0.044 C 
HETATM    2  C2  UNL     1      61.542  83.242  13.867  1.00  0.00     0.233 C 
HETATM    3  C3  UNL     1      60.375  84.116  13.651  1.00  0.00     0.153 C 
HETATM    4  N1  UNL     1      60.518  85.514  13.824  1.00  0.00    -0.394 N 
HETATM    5  C21 UNL     1      61.809  86.082  13.696  1.00  0.00     0.125 C 
HETATM    6  C31 UNL     1      62.860  85.186  14.305  1.00  0.00     0.296 C 
HETATM    7  N6  UNL     1      62.841  83.863  13.695  1.00  0.00     0.091 N 
HETATM    8  H33 UNL     1      63.572  83.298  14.225  1.00  0.00     0.316 HD
ENDROOT
BRANCH   4   9
HETATM    9  C4  UNL     1      59.478  86.283  13.164  1.00  0.00     0.220 C 
BRANCH   9  10
HETATM   10  C5  UNL     1      58.816  85.567  12.088  1.00  0.00     0.241 C 
HETATM   11  O1  UNL     1      57.636  85.164  12.317  1.00  0.00    -0.271 OA
BRANCH  10  12
HETATM   12  N2  UNL     1      59.378  85.291  10.833  1.00  0.00    -0.313 N 
HETATM   13  C6  UNL     1      60.290  86.216  10.146  1.00  0.00     0.147 C 
HETATM   14  C7  UNL     1      60.310  85.817   8.709  1.00  0.00     0.018 C 
HETATM   15  C8  UNL     1      59.354  86.648   7.864  1.00  0.00     0.023 C 
HETATM   16  C9  UNL     1      61.682  85.928   8.107  1.00  0.00     0.023 C 
HETATM   17  C10 UNL     1      59.781  84.431   8.720  1.00  0.00     0.093 A 
HETATM   18  N3  UNL     1      59.760  83.499   7.762  1.00  0.00    -0.151 NA
HETATM   19  C20 UNL     1      59.249  84.169   9.968  1.00  0.00     0.066 A 
HETATM   20  N4  UNL     1      59.228  82.299   7.979  1.00  0.00    -0.154 NA
HETATM   21  C11 UNL     1      58.688  81.958   9.158  1.00  0.00     0.063 A 
HETATM   22  C19 UNL     1      58.708  82.926  10.162  1.00  0.00     0.061 A 
BRANCH  21  23
HETATM   23  C12 UNL     1      58.097  80.623   9.409  1.00  0.00     0.102 C 
BRANCH  23  24
HETATM   24  C13 UNL     1      58.892  79.924  10.460  1.00  0.00    -0.014 A 
HETATM   25  C14 UNL     1      58.416  79.814  11.744  1.00  0.00     0.013 A 
HETATM   26  C15 UNL     1      59.158  79.169  12.705  1.00  0.00     0.043 A 
HETATM   27  C16 UNL     1      60.381  78.637  12.359  1.00  0.00     0.119 A 
HETATM   28  F1  UNL     1      61.098  78.004  13.322  1.00  0.00    -0.206 F 
HETATM   29  C17 UNL     1      60.878  78.739  11.062  1.00  0.00     0.085 A 
HETATM   30  C18 UNL     1      60.105  79.392  10.131  1.00  0.00     0.126 A 
HETATM   31  F2  UNL     1      60.541  79.524   8.837  1.00  0.00    -0.205 F 
ENDBRANCH  23  24
ENDBRANCH  21  23
ENDBRANCH  10  12
ENDBRANCH   9  10
ENDBRANCH   4   9
BRANCH   5  32
HETATM   32  C22 UNL     1      61.867  87.410  14.413  1.00  0.00     0.153 C 
BRANCH  32  33
HETATM   33  N5  UNL     1      62.885  88.304  13.886  1.00  0.00    -0.342 N 
HETATM   34  C23 UNL     1      63.994  88.911  14.585  1.00  0.00     0.169 A 
HETATM   35  C24 UNL     1      64.761  89.659  13.560  1.00  0.00     0.014 A 
HETATM   36  C25 UNL     1      65.938  90.406  13.634  1.00  0.00     0.125 A 
HETATM   37  C29 UNL     1      64.131  89.567  12.340  1.00  0.00     0.043 A 
HETATM   38  F3  UNL     1      66.537  90.476  14.850  1.00  0.00    -0.205 F 
HETATM   39  C26 UNL     1      66.446  91.031  12.514  1.00  0.00     0.043 A 
HETATM   40  C27 UNL     1      65.828  90.950  11.285  1.00  0.00     0.004 A 
HETATM   41  C28 UNL     1      64.667  90.212  11.216  1.00  0.00     0.018 A 
HETATM   42  C30 UNL     1      62.958  88.726  12.535  1.00  0.00     0.254 A 
HETATM   43  O2  UNL     1      62.154  88.450  11.585  1.00  0.00    -0.267 OA
ENDBRANCH  32  33
ENDBRANCH   5  32
TORSDOF 6
ENDMDL
MODEL 5
REMARK VINA RESULT:     -12.1      2.676      7.686
REMARK  7 active torsions:
REMARK  status: ('A' for Active; 'I' for Inactive)
REMARK    1  A    between atoms: N1_4  and  C4_5 
REMARK    2  A    between atoms: C4_5  and  C5_6 
REMARK    3  A    between atoms: C5_6  and  N2_8 
REMARK    4  A    between atoms: C11_16  and  C12_17 
REMARK    5  A    between atoms: C12_17  and  C13_18 
REMARK    6  A    between atoms: C21_28  and  C22_29 
REMARK    7  A    between atoms: C22_29  and  N5_30 
ROOT
HETATM    1  C1  UNL     1      62.308  87.848   9.491  1.00  0.00     0.044 C 
HETATM    2  C2  UNL     1      60.922  87.264   9.637  1.00  0.00     0.233 C 
HETATM    3  C3  UNL     1      60.651  86.680  10.962  1.00  0.00     0.153 C 
HETATM    4  N1  UNL     1      59.724  85.615  11.071  1.00  0.00    -0.394 N 
HETATM    5  C21 UNL     1      59.474  84.817   9.927  1.00  0.00     0.125 C 
HETATM    6  C31 UNL     1      59.435  85.660   8.675  1.00  0.00     0.296 C 
HETATM    7  N6  UNL     1      60.678  86.398   8.499  1.00  0.00     0.091 N 
HETATM    8  H33 UNL     1      60.530  86.996   7.629  1.00  0.00     0.316 HD
ENDROOT
BRANCH   4   9
HETATM    9  C4  UNL     1      59.877  84.844  12.292  1.00  0.00     0.220 C 
BRANCH   9  10
HETATM   10  C5  UNL     1      59.971  85.660  13.489  1.00  0.00     0.241 C 
HETATM   11  O1  UNL     1      58.877  86.056  13.993  1.00  0.00    -0.271 OA
BRANCH  10  12
HETATM   12  N2  UNL     1      61.166  86.037  14.120  1.00  0.00    -0.313 N 
HETATM   13  C6  UNL     1      61.365  87.360  14.728  1.00  0.00     0.147 C 
HETATM   14  C7  UNL     1      62.836  87.551  14.878  1.00  0.00     0.018 C 
HETATM   15  C8  UNL     1      63.435  88.351  13.729  1.00  0.00     0.023 C 
HETATM   16  C9  UNL     1      63.192  88.242  16.164  1.00  0.00     0.023 C 
HETATM   17  C10 UNL     1      63.383  86.175  14.777  1.00  0.00     0.093 A 
HETATM   18  N3  UNL     1      64.606  85.703  15.037  1.00  0.00    -0.151 NA
HETATM   19  C20 UNL     1      62.383  85.332  14.331  1.00  0.00     0.066 A 
HETATM   20  N4  UNL     1      64.896  84.415  14.876  1.00  0.00    -0.154 NA
HETATM   21  C11 UNL     1      63.990  83.524  14.447  1.00  0.00     0.063 A 
HETATM   22  C19 UNL     1      62.711  84.011  14.175  1.00  0.00     0.061 A 
BRANCH  21  23
HETATM   23  C12 UNL     1      64.303  82.088  14.269  1.00  0.00     0.102 C 
BRANCH  23  24
HETATM   24  C13 UNL     1      63.693  81.607  12.995  1.00  0.00    -0.014 A 
HETATM   25  C14 UNL     1      64.156  82.056  11.782  1.00  0.00     0.013 A 
HETATM   26  C15 UNL     1      63.586  81.608  10.613  1.00  0.00     0.043 A 
HETATM   27  C16 UNL     1      62.548  80.704  10.681  1.00  0.00     0.119 A 
HETATM   28  F1  UNL     1      61.999  80.274   9.517  1.00  0.00    -0.206 F 
HETATM   29  C17 UNL     1      62.068  80.238  11.903  1.00  0.00     0.085 A 
HETATM   30  C18 UNL     1      62.665  80.712  13.047  1.00  0.00     0.126 A 
HETATM   31  F2  UNL     1      62.236  80.289  14.279  1.00  0.00    -0.205 F 
ENDBRANCH  23  24
ENDBRANCH  21  23
ENDBRANCH  10  12
ENDBRANCH   9  10
ENDBRANCH   4   9
BRANCH   5  32
HETATM   32  C22 UNL     1      58.138  84.125  10.057  1.00  0.00     0.153 C 
BRANCH  32  33
HETATM   33  N5  UNL     1      58.245  82.747  10.506  1.00  0.00    -0.342 N 
HETATM   34  C23 UNL     1      58.604  82.256  11.817  1.00  0.00     0.169 A 
HETATM   35  C24 UNL     1      58.478  80.780  11.747  1.00  0.00     0.014 A 
HETATM   36  C25 UNL     1      58.658  79.781  12.704  1.00  0.00     0.125 A 
HETATM   37  C29 UNL     1      58.129  80.397  10.471  1.00  0.00     0.043 A 
HETATM   38  F3  UNL     1      59.000  80.190  13.952  1.00  0.00    -0.205 F 
HETATM   39  C26 UNL     1      58.493  78.452  12.374  1.00  0.00     0.043 A 
HETATM   40  C27 UNL     1      58.145  78.050  11.101  1.00  0.00     0.004 A 
HETATM   41  C28 UNL     1      57.967  79.039  10.159  1.00  0.00     0.018 A 
HETATM   42  C30 UNL     1      57.984  81.618   9.691  1.00  0.00     0.254 A 
HETATM   43  O2  UNL     1      57.669  81.601   8.456  1.00  0.00    -0.267 OA
ENDBRANCH  32  33
ENDBRANCH   5  32
TORSDOF 6
ENDMDL
MODEL 6
REMARK VINA RESULT:     -11.9      1.496      1.999
REMARK  7 active torsions:
REMARK  status: ('A' for Active; 'I' for Inactive)
REMARK    1  A    between atoms: N1_4  and  C4_5 
REMARK    2  A    between atoms: C4_5  and  C5_6 
REMARK    3  A    between atoms: C5_6  and  N2_8 
REMARK    4  A    between atoms: C11_16  and  C12_17 
REMARK    5  A    between atoms: C12_17  and  C13_18 
REMARK    6  A    between atoms: C21_28  and  C22_29 
REMARK    7  A    between atoms: C22_29  and  N5_30 
ROOT
HETATM    1  C1  UNL     1      62.170  82.142  14.448  1.00  0.00     0.044 C 
HETATM    2  C2  UNL     1      62.160  83.583  14.906  1.00  0.00     0.233 C 
HETATM    3  C3  UNL     1      60.888  84.284  14.659  1.00  0.00     0.153 C 
HETATM    4  N1  UNL     1      60.901  85.685  14.452  1.00  0.00    -0.394 N 
HETATM    5  C21 UNL     1      62.096  86.289  13.991  1.00  0.00     0.125 C 
HETATM    6  C31 UNL     1      63.307  85.661  14.638  1.00  0.00     0.296 C 
HETATM    7  N6  UNL     1      63.352  84.226  14.389  1.00  0.00     0.091 N 
HETATM    8  H33 UNL     1      64.202  83.874  14.926  1.00  0.00     0.316 HD
ENDROOT
BRANCH   4   9
HETATM    9  C4  UNL     1      59.709  86.178  13.786  1.00  0.00     0.220 C 
BRANCH   9  10
HETATM   10  C5  UNL     1      59.403  85.485  12.547  1.00  0.00     0.241 C 
HETATM   11  O1  UNL     1      58.449  84.652  12.583  1.00  0.00    -0.271 OA
BRANCH  10  12
HETATM   12  N2  UNL     1      60.078  85.667  11.331  1.00  0.00    -0.313 N 
HETATM   13  C6  UNL     1      60.040  86.929  10.578  1.00  0.00     0.147 C 
HETATM   14  C7  UNL     1      60.464  86.613   9.183  1.00  0.00     0.018 C 
HETATM   15  C8  UNL     1      59.278  86.401   8.252  1.00  0.00     0.023 C 
HETATM   16  C9  UNL     1      61.332  87.689   8.595  1.00  0.00     0.023 C 
HETATM   17  C10 UNL     1      61.152  85.305   9.311  1.00  0.00     0.093 A 
HETATM   18  N3  UNL     1      61.909  84.631   8.440  1.00  0.00    -0.151 NA
HETATM   19  C20 UNL     1      60.899  84.791  10.568  1.00  0.00     0.066 A 
HETATM   20  N4  UNL     1      62.439  83.452   8.755  1.00  0.00    -0.154 NA
HETATM   21  C11 UNL     1      62.247  82.877   9.951  1.00  0.00     0.063 A 
HETATM   22  C19 UNL     1      61.458  83.576  10.864  1.00  0.00     0.061 A 
BRANCH  21  23
HETATM   23  C12 UNL     1      62.836  81.567  10.312  1.00  0.00     0.102 C 
BRANCH  23  24
HETATM   24  C13 UNL     1      61.741  80.571  10.500  1.00  0.00    -0.014 A 
HETATM   25  C14 UNL     1      60.716  80.474   9.591  1.00  0.00     0.013 A 
HETATM   26  C15 UNL     1      59.711  79.554   9.775  1.00  0.00     0.043 A 
HETATM   27  C16 UNL     1      59.751  78.735  10.883  1.00  0.00     0.119 A 
HETATM   28  F1  UNL     1      58.749  77.833  11.046  1.00  0.00    -0.206 F 
HETATM   29  C17 UNL     1      60.783  78.820  11.814  1.00  0.00     0.085 A 
HETATM   30  C18 UNL     1      61.768  79.753  11.593  1.00  0.00     0.126 A 
HETATM   31  F2  UNL     1      62.810  79.884  12.474  1.00  0.00    -0.205 F 
ENDBRANCH  23  24
ENDBRANCH  21  23
ENDBRANCH  10  12
ENDBRANCH   9  10
ENDBRANCH   4   9
BRANCH   5  32
HETATM   32  C22 UNL     1      62.103  87.760  14.335  1.00  0.00     0.153 C 
BRANCH  32  33
HETATM   33  N5  UNL     1      62.960  88.550  13.465  1.00  0.00    -0.342 N 
HETATM   34  C23 UNL     1      62.869  88.724  12.034  1.00  0.00     0.169 A 
HETATM   35  C24 UNL     1      63.935  89.690  11.673  1.00  0.00     0.014 A 
HETATM   36  C25 UNL     1      64.303  90.262  10.455  1.00  0.00     0.125 A 
HETATM   37  C29 UNL     1      64.660  90.030  12.792  1.00  0.00     0.043 A 
HETATM   38  F3  UNL     1      63.567  89.909   9.370  1.00  0.00    -0.205 F 
HETATM   39  C26 UNL     1      65.365  91.139  10.382  1.00  0.00     0.043 A 
HETATM   40  C27 UNL     1      66.104  91.490  11.492  1.00  0.00     0.004 A 
HETATM   41  C28 UNL     1      65.736  90.924  12.693  1.00  0.00     0.018 A 
HETATM   42  C30 UNL     1      64.060  89.321  13.914  1.00  0.00     0.254 A 
HETATM   43  O2  UNL     1      64.511  89.423  15.102  1.00  0.00    -0.267 OA
ENDBRANCH  32  33
ENDBRANCH   5  32
TORSDOF 6
ENDMDL
MODEL 7
REMARK VINA RESULT:     -11.9      2.318      4.760
REMARK  7 active torsions:
REMARK  status: ('A' for Active; 'I' for Inactive)
REMARK    1  A    between atoms: N1_4  and  C4_5 
REMARK    2  A    between atoms: C4_5  and  C5_6 
REMARK    3  A    between atoms: C5_6  and  N2_8 
REMARK    4  A    between atoms: C11_16  and  C12_17 
REMARK    5  A    between atoms: C12_17  and  C13_18 
REMARK    6  A    between atoms: C21_28  and  C22_29 
REMARK    7  A    between atoms: C22_29  and  N5_30 
ROOT
HETATM    1  C1  UNL     1      56.966  85.691  13.686  1.00  0.00     0.044 C 
HETATM    2  C2  UNL     1      58.436  86.026  13.569  1.00  0.00     0.233 C 
HETATM    3  C3  UNL     1      59.313  84.850  13.435  1.00  0.00     0.153 C 
HETATM    4  N1  UNL     1      60.643  84.923  13.914  1.00  0.00    -0.394 N 
HETATM    5  C21 UNL     1      60.948  85.870  14.922  1.00  0.00     0.125 C 
HETATM    6  C31 UNL     1      60.211  87.167  14.689  1.00  0.00     0.296 C 
HETATM    7  N6  UNL     1      58.771  86.951  14.634  1.00  0.00     0.091 N 
HETATM    8  H33 UNL     1      58.352  87.905  14.414  1.00  0.00     0.316 HD
ENDROOT
BRANCH   4   9
HETATM    9  C4  UNL     1      61.243  83.620  14.143  1.00  0.00     0.220 C 
BRANCH   9  10
HETATM   10  C5  UNL     1      61.533  82.888  12.923  1.00  0.00     0.241 C 
HETATM   11  O1  UNL     1      62.520  83.295  12.239  1.00  0.00    -0.271 OA
BRANCH  10  12
HETATM   12  N2  UNL     1      60.812  81.781  12.453  1.00  0.00    -0.313 N 
HETATM   13  C6  UNL     1      60.247  80.759  13.345  1.00  0.00     0.147 C 
HETATM   14  C7  UNL     1      59.971  79.557  12.506  1.00  0.00     0.018 C 
HETATM   15  C8  UNL     1      61.093  78.530  12.578  1.00  0.00     0.023 C 
HETATM   16  C9  UNL     1      58.689  78.875  12.894  1.00  0.00     0.023 C 
HETATM   17  C10 UNL     1      59.960  80.088  11.121  1.00  0.00     0.093 A 
HETATM   18  N3  UNL     1      59.567  79.524   9.974  1.00  0.00    -0.151 NA
HETATM   19  C20 UNL     1      60.458  81.377  11.135  1.00  0.00     0.066 A 
HETATM   20  N4  UNL     1      59.644  80.181   8.821  1.00  0.00    -0.154 NA
HETATM   21  C11 UNL     1      60.115  81.434   8.740  1.00  0.00     0.063 A 
HETATM   22  C19 UNL     1      60.525  82.029   9.933  1.00  0.00     0.061 A 
BRANCH  21  23
HETATM   23  C12 UNL     1      60.200  82.175   7.460  1.00  0.00     0.102 C 
BRANCH  23  24
HETATM   24  C13 UNL     1      60.052  83.635   7.727  1.00  0.00    -0.014 A 
HETATM   25  C14 UNL     1      61.129  84.482   7.614  1.00  0.00     0.013 A 
HETATM   26  C15 UNL     1      60.982  85.826   7.863  1.00  0.00     0.043 A 
HETATM   27  C16 UNL     1      59.743  86.306   8.228  1.00  0.00     0.119 A 
HETATM   28  F1  UNL     1      59.620  87.636   8.471  1.00  0.00    -0.206 F 
HETATM   29  C17 UNL     1      58.642  85.461   8.348  1.00  0.00     0.085 A 
HETATM   30  C18 UNL     1      58.831  84.125   8.089  1.00  0.00     0.126 A 
HETATM   31  F2  UNL     1      57.784  83.244   8.190  1.00  0.00    -0.205 F 
ENDBRANCH  23  24
ENDBRANCH  21  23
ENDBRANCH  10  12
ENDBRANCH   9  10
ENDBRANCH   4   9
BRANCH   5  32
HETATM   32  C22 UNL     1      62.427  86.175  14.920  1.00  0.00     0.153 C 
BRANCH  32  33
HETATM   33  N5  UNL     1      62.826  87.081  13.856  1.00  0.00    -0.342 N 
HETATM   34  C23 UNL     1      62.397  87.088  12.476  1.00  0.00     0.169 A 
HETATM   35  C24 UNL     1      63.046  88.268  11.854  1.00  0.00     0.014 A 
HETATM   36  C25 UNL     1      62.978  88.800  10.566  1.00  0.00     0.125 A 
HETATM   37  C29 UNL     1      63.859  88.896  12.770  1.00  0.00     0.043 A 
HETATM   38  F3  UNL     1      62.167  88.160   9.686  1.00  0.00    -0.205 F 
HETATM   39  C26 UNL     1      63.709  89.920  10.228  1.00  0.00     0.043 A 
HETATM   40  C27 UNL     1      64.529  90.561  11.133  1.00  0.00     0.004 A 
HETATM   41  C28 UNL     1      64.593  90.033  12.403  1.00  0.00     0.018 A 
HETATM   42  C30 UNL     1      63.729  88.160  14.021  1.00  0.00     0.254 A 
HETATM   43  O2  UNL     1      64.367  88.492  15.074  1.00  0.00    -0.267 OA
ENDBRANCH  32  33
ENDBRANCH   5  32
TORSDOF 6
ENDMDL
MODEL 8
REMARK VINA RESULT:     -11.7      2.716      7.852
REMARK  7 active torsions:
REMARK  status: ('A' for Active; 'I' for Inactive)
REMARK    1  A    between atoms: N1_4  and  C4_5 
REMARK    2  A    between atoms: C4_5  and  C5_6 
REMARK    3  A    between atoms: C5_6  and  N2_8 
REMARK    4  A    between atoms: C11_16  and  C12_17 
REMARK    5  A    between atoms: C12_17  and  C13_18 
REMARK    6  A    between atoms: C21_28  and  C22_29 
REMARK    7  A    between atoms: C22_29  and  N5_30 
ROOT
HETATM    1  C1  UNL     1      58.664  78.483  13.626  1.00  0.00     0.044 C 
HETATM    2  C2  UNL     1      59.287  78.776  12.281  1.00  0.00     0.233 C 
HETATM    3  C3  UNL     1      60.573  79.492  12.355  1.00  0.00     0.153 C 
HETATM    4  N1  UNL     1      60.954  80.339  11.287  1.00  0.00    -0.394 N 
HETATM    5  C21 UNL     1      59.942  80.873  10.454  1.00  0.00     0.125 C 
HETATM    6  C31 UNL     1      58.859  79.854  10.192  1.00  0.00     0.296 C 
HETATM    7  N6  UNL     1      58.273  79.378  11.438  1.00  0.00     0.091 N 
HETATM    8  H33 UNL     1      57.568  78.632  11.151  1.00  0.00     0.316 HD
ENDROOT
BRANCH   4   9
HETATM    9  C4  UNL     1      61.970  81.309  11.658  1.00  0.00     0.220 C 
BRANCH   9  10
HETATM   10  C5  UNL     1      61.728  81.945  12.940  1.00  0.00     0.241 C 
HETATM   11  O1  UNL     1      62.414  81.526  13.920  1.00  0.00    -0.271 OA
BRANCH  10  12
HETATM   12  N2  UNL     1      60.804  82.976  13.171  1.00  0.00    -0.313 N 
HETATM   13  C6  UNL     1      59.355  82.745  13.255  1.00  0.00     0.147 C 
HETATM   14  C7  UNL     1      58.694  84.066  13.051  1.00  0.00     0.018 C 
HETATM   15  C8  UNL     1      58.247  84.273  11.610  1.00  0.00     0.023 C 
HETATM   16  C9  UNL     1      57.497  84.246  13.941  1.00  0.00     0.023 C 
HETATM   17  C10 UNL     1      59.776  85.047  13.312  1.00  0.00     0.093 A 
HETATM   18  N3  UNL     1      59.729  86.372  13.479  1.00  0.00    -0.151 NA
HETATM   19  C20 UNL     1      60.981  84.373  13.371  1.00  0.00     0.066 A 
HETATM   20  N4  UNL     1      60.833  87.079  13.704  1.00  0.00    -0.154 NA
HETATM   21  C11 UNL     1      62.045  86.510  13.776  1.00  0.00     0.063 A 
HETATM   22  C19 UNL     1      62.101  85.126  13.604  1.00  0.00     0.061 A 
BRANCH  21  23
HETATM   23  C12 UNL     1      63.279  87.288  14.030  1.00  0.00     0.102 C 
BRANCH  23  24
HETATM   24  C13 UNL     1      63.488  88.256  12.915  1.00  0.00    -0.014 A 
HETATM   25  C14 UNL     1      62.781  88.139  11.742  1.00  0.00     0.013 A 
HETATM   26  C15 UNL     1      62.983  89.036  10.720  1.00  0.00     0.043 A 
HETATM   27  C16 UNL     1      63.903  90.048  10.891  1.00  0.00     0.119 A 
HETATM   28  F1  UNL     1      64.087  90.922   9.869  1.00  0.00    -0.206 F 
HETATM   29  C17 UNL     1      64.627  90.180  12.073  1.00  0.00     0.085 A 
HETATM   30  C18 UNL     1      64.396  89.263  13.071  1.00  0.00     0.126 A 
HETATM   31  F2  UNL     1      65.078  89.342  14.258  1.00  0.00    -0.205 F 
ENDBRANCH  23  24
ENDBRANCH  21  23
ENDBRANCH  10  12
ENDBRANCH   9  10
ENDBRANCH   4   9
BRANCH   5  32
HETATM   32  C22 UNL     1      60.524  81.277   9.120  1.00  0.00     0.153 C 
BRANCH  32  33
HETATM   33  N5  UNL     1      60.458  82.708   8.873  1.00  0.00    -0.342 N 
HETATM   34  C23 UNL     1      61.508  83.691   9.008  1.00  0.00     0.169 A 
HETATM   35  C24 UNL     1      60.924  84.976   8.553  1.00  0.00     0.014 A 
HETATM   36  C25 UNL     1      61.466  86.255   8.425  1.00  0.00     0.125 A 
HETATM   37  C29 UNL     1      59.599  84.801   8.224  1.00  0.00     0.043 A 
HETATM   38  F3  UNL     1      62.776  86.396   8.755  1.00  0.00    -0.205 F 
HETATM   39  C26 UNL     1      60.691  87.308   7.985  1.00  0.00     0.043 A 
HETATM   40  C27 UNL     1      59.362  87.151   7.652  1.00  0.00     0.004 A 
HETATM   41  C28 UNL     1      58.830  85.886   7.779  1.00  0.00     0.018 A 
HETATM   42  C30 UNL     1      59.299  83.389   8.423  1.00  0.00     0.254 A 
HETATM   43  O2  UNL     1      58.141  82.904   8.207  1.00  0.00    -0.267 OA
ENDBRANCH  32  33
ENDBRANCH   5  32
TORSDOF 6
ENDMDL
MODEL 9
REMARK VINA RESULT:     -11.6      2.354      7.230
REMARK  7 active torsions:
REMARK  status: ('A' for Active; 'I' for Inactive)
REMARK    1  A    between atoms: N1_4  and  C4_5 
REMARK    2  A    between atoms: C4_5  and  C5_6 
REMARK    3  A    between atoms: C5_6  and  N2_8 
REMARK    4  A    between atoms: C11_16  and  C12_17 
REMARK    5  A    between atoms: C12_17  and  C13_18 
REMARK    6  A    between atoms: C21_28  and  C22_29 
REMARK    7  A    between atoms: C22_29  and  N5_30 
ROOT
HETATM    1  C1  UNL     1      63.724  89.163  11.085  1.00  0.00     0.044 C 
HETATM    2  C2  UNL     1      62.287  88.831  10.750  1.00  0.00     0.233 C 
HETATM    3  C3  UNL     1      61.745  87.684  11.497  1.00  0.00     0.153 C 
HETATM    4  N1  UNL     1      60.724  86.898  10.910  1.00  0.00    -0.394 N 
HETATM    5  C21 UNL     1      60.604  86.891   9.499  1.00  0.00     0.125 C 
HETATM    6  C31 UNL     1      60.852  88.266   8.926  1.00  0.00     0.296 C 
HETATM    7  N6  UNL     1      62.167  88.765   9.307  1.00  0.00     0.091 N 
HETATM    8  H33 UNL     1      62.222  89.750   8.905  1.00  0.00     0.316 HD
ENDROOT
BRANCH   4   9
HETATM    9  C4  UNL     1      60.598  85.580  11.508  1.00  0.00     0.220 C 
BRANCH   9  10
HETATM   10  C5  UNL     1      60.430  85.607  12.950  1.00  0.00     0.241 C 
HETATM   11  O1  UNL     1      59.239  85.608  13.383  1.00  0.00    -0.271 OA
BRANCH  10  12
HETATM   12  N2  UNL     1      61.475  85.633  13.885  1.00  0.00    -0.313 N 
HETATM   13  C6  UNL     1      61.513  86.572  15.015  1.00  0.00     0.147 C 
HETATM   14  C7  UNL     1      62.924  86.617  15.495  1.00  0.00     0.018 C 
HETATM   15  C8  UNL     1      63.696  87.794  14.914  1.00  0.00     0.023 C 
HETATM   16  C9  UNL     1      63.013  86.693  16.992  1.00  0.00     0.023 C 
HETATM   17  C10 UNL     1      63.527  85.384  14.930  1.00  0.00     0.093 A 
HETATM   18  N3  UNL     1      64.697  84.791  15.188  1.00  0.00    -0.151 NA
HETATM   19  C20 UNL     1      62.657  84.849  14.001  1.00  0.00     0.066 A 
HETATM   20  N4  UNL     1      65.057  83.675  14.560  1.00  0.00    -0.154 NA
HETATM   21  C11 UNL     1      64.277  83.086  13.642  1.00  0.00     0.063 A 
HETATM   22  C19 UNL     1      63.054  83.700  13.371  1.00  0.00     0.061 A 
BRANCH  21  23
HETATM   23  C12 UNL     1      64.667  81.841  12.942  1.00  0.00     0.102 C 
BRANCH  23  24
HETATM   24  C13 UNL     1      63.447  81.188  12.383  1.00  0.00    -0.014 A 
HETATM   25  C14 UNL     1      62.556  80.544  13.207  1.00  0.00     0.013 A 
HETATM   26  C15 UNL     1      61.436  79.944  12.683  1.00  0.00     0.043 A 
HETATM   27  C16 UNL     1      61.224  80.000  11.322  1.00  0.00     0.119 A 
HETATM   28  F1  UNL     1      60.112  79.401  10.824  1.00  0.00    -0.206 F 
HETATM   29  C17 UNL     1      62.117  80.649  10.473  1.00  0.00     0.085 A 
HETATM   30  C18 UNL     1      63.224  81.236  11.038  1.00  0.00     0.126 A 
HETATM   31  F2  UNL     1      64.139  81.891  10.253  1.00  0.00    -0.205 F 
ENDBRANCH  23  24
ENDBRANCH  21  23
ENDBRANCH  10  12
ENDBRANCH   9  10
ENDBRANCH   4   9
BRANCH   5  32
HETATM   32  C22 UNL     1      59.210  86.472   9.096  1.00  0.00     0.153 C 
BRANCH  32  33
HETATM   33  N5  UNL     1      59.120  85.074   8.706  1.00  0.00    -0.342 N 
HETATM   34  C23 UNL     1      59.790  84.403   7.617  1.00  0.00     0.169 A 
HETATM   35  C24 UNL     1      59.407  82.973   7.723  1.00  0.00     0.014 A 
HETATM   36  C25 UNL     1      59.770  81.852   6.977  1.00  0.00     0.125 A 
HETATM   37  C29 UNL     1      58.521  82.799   8.762  1.00  0.00     0.043 A 
HETATM   38  F3  UNL     1      60.647  82.055   5.961  1.00  0.00    -0.205 F 
HETATM   39  C26 UNL     1      59.249  80.609   7.275  1.00  0.00     0.043 A 
HETATM   40  C27 UNL     1      58.360  80.417   8.311  1.00  0.00     0.004 A 
HETATM   41  C28 UNL     1      58.005  81.527   9.046  1.00  0.00     0.018 A 
HETATM   42  C30 UNL     1      58.334  84.105   9.378  1.00  0.00     0.254 A 
HETATM   43  O2  UNL     1      57.559  84.282  10.375  1.00  0.00    -0.267 OA
ENDBRANCH  32  33
ENDBRANCH   5  32
TORSDOF 6
ENDMDL
