MODEL 1
REMARK VINA RESULT:      -6.2      0.000      0.000
REMARK  6 active torsions:
REMARK  status: ('A' for Active; 'I' for Inactive)
REMARK    1  A    between atoms: C7_7  and  O1_8 
REMARK    2  A    between atoms: O1_8  and  C8_9 
REMARK    3  A    between atoms: C8_9  and  C9_10 
REMARK    4  A    between atoms: C9_10  and  O2_11 
REMARK    5  A    between atoms: C9_10  and  C10_12 
REMARK    6  A    between atoms: C10_12  and  O3_13 
ROOT
HETATM    1  C1  UNL     1       8.251  27.634  -0.624  1.00  0.00     0.051 C 
HETATM    2  C2  UNL     1       9.006  27.513  -1.898  1.00  0.00    -0.029 A 
HETATM    3  C3  UNL     1       8.651  28.262  -3.001  1.00  0.00     0.009 A 
HETATM    4  C4  UNL     1       9.381  28.120  -4.170  1.00  0.00     0.001 A 
HETATM    5  C5  UNL     1      10.437  27.232  -4.189  1.00  0.00     0.003 A 
HETATM    6  C6  UNL     1      10.782  26.485  -3.068  1.00  0.00     0.037 A 
HETATM    7  C7  UNL     1      10.065  26.619  -1.906  1.00  0.00     0.074 A 
ENDROOT
BRANCH   7   8
HETATM    8  O1  UNL     1      10.405  25.879  -0.790  1.00  0.00    -0.348 OA
BRANCH   8   9
HETATM    9  C8  UNL     1      11.487  24.978  -0.893  1.00  0.00     0.209 C 
BRANCH   9  10
HETATM   10  C9  UNL     1      12.070  24.728   0.480  1.00  0.00     0.166 C 
BRANCH  10  11
HETATM   11  O2  UNL     1      11.766  23.482   0.977  1.00  0.00    -0.391 OA
HETATM   12  H11 UNL     1      12.593  22.910   1.019  1.00  0.00     0.210 HD
ENDBRANCH  10  11
BRANCH  10  13
HETATM   13  C10 UNL     1      11.566  25.818   1.390  1.00  0.00     0.198 C 
BRANCH  13  14
HETATM   14  O3  UNL     1      11.754  25.425   2.709  1.00  0.00    -0.398 OA
HETATM   15  H14 UNL     1      11.022  24.845   3.035  1.00  0.00     0.209 HD
ENDBRANCH  13  14
ENDBRANCH  10  13
ENDBRANCH   9  10
ENDBRANCH   8   9
ENDBRANCH   7   8
TORSDOF 6
ENDMDL
MODEL 2
REMARK VINA RESULT:      -6.1      0.820      1.994
REMARK  6 active torsions:
REMARK  status: ('A' for Active; 'I' for Inactive)
REMARK    1  A    between atoms: C7_7  and  O1_8 
REMARK    2  A    between atoms: O1_8  and  C8_9 
REMARK    3  A    between atoms: C8_9  and  C9_10 
REMARK    4  A    between atoms: C9_10  and  O2_11 
REMARK    5  A    between atoms: C9_10  and  C10_12 
REMARK    6  A    between atoms: C10_12  and  O3_13 
ROOT
HETATM    1  C1  UNL     1      11.712  27.772  -3.875  1.00  0.00     0.051 C 
HETATM    2  C2  UNL     1      10.436  27.871  -3.119  1.00  0.00    -0.029 A 
HETATM    3  C3  UNL     1       9.436  28.724  -3.536  1.00  0.00     0.009 A 
HETATM    4  C4  UNL     1       8.261  28.787  -2.803  1.00  0.00     0.001 A 
HETATM    5  C5  UNL     1       8.137  27.993  -1.681  1.00  0.00     0.003 A 
HETATM    6  C6  UNL     1       9.156  27.138  -1.276  1.00  0.00     0.037 A 
HETATM    7  C7  UNL     1      10.321  27.069  -1.994  1.00  0.00     0.074 A 
ENDROOT
BRANCH   7   8
HETATM    8  O1  UNL     1      11.336  26.221  -1.595  1.00  0.00    -0.348 OA
BRANCH   8   9
HETATM    9  C8  UNL     1      10.988  25.067  -0.860  1.00  0.00     0.209 C 
BRANCH   9  10
HETATM   10  C9  UNL     1      11.939  24.903   0.305  1.00  0.00     0.166 C 
BRANCH  10  11
HETATM   11  O2  UNL     1      11.881  23.653   0.878  1.00  0.00    -0.391 OA
HETATM   12  H11 UNL     1      10.970  23.491   1.272  1.00  0.00     0.210 HD
ENDBRANCH  10  11
BRANCH  10  13
HETATM   13  C10 UNL     1      11.615  25.979   1.308  1.00  0.00     0.198 C 
BRANCH  13  14
HETATM   14  O3  UNL     1      11.720  25.449   2.587  1.00  0.00    -0.398 OA
HETATM   15  H14 UNL     1      12.306  24.652   2.616  1.00  0.00     0.209 HD
ENDBRANCH  13  14
ENDBRANCH  10  13
ENDBRANCH   9  10
ENDBRANCH   8   9
ENDBRANCH   7   8
TORSDOF 6
ENDMDL
MODEL 3
REMARK VINA RESULT:      -5.9      1.637      1.836
REMARK  6 active torsions:
REMARK  status: ('A' for Active; 'I' for Inactive)
REMARK    1  A    between atoms: C7_7  and  O1_8 
REMARK    2  A    between atoms: O1_8  and  C8_9 
REMARK    3  A    between atoms: C8_9  and  C9_10 
REMARK    4  A    between atoms: C9_10  and  O2_11 
REMARK    5  A    between atoms: C9_10  and  C10_12 
REMARK    6  A    between atoms: C10_12  and  O3_13 
ROOT
HETATM    1  C1  UNL     1       8.799  24.756  -3.032  1.00  0.00     0.051 C 
HETATM    2  C2  UNL     1       9.626  25.962  -3.297  1.00  0.00    -0.029 A 
HETATM    3  C3  UNL     1       9.113  27.022  -4.015  1.00  0.00     0.009 A 
HETATM    4  C4  UNL     1       9.916  28.129  -4.241  1.00  0.00     0.001 A 
HETATM    5  C5  UNL     1      11.202  28.128  -3.740  1.00  0.00     0.003 A 
HETATM    6  C6  UNL     1      11.703  27.050  -3.018  1.00  0.00     0.037 A 
HETATM    7  C7  UNL     1      10.915  25.951  -2.790  1.00  0.00     0.074 A 
ENDROOT
BRANCH   7   8
HETATM    8  O1  UNL     1      11.409  24.878  -2.073  1.00  0.00    -0.348 OA
BRANCH   8   9
HETATM    9  C8  UNL     1      12.197  25.145  -0.932  1.00  0.00     0.209 C 
BRANCH   9  10
HETATM   10  C9  UNL     1      11.306  25.255   0.284  1.00  0.00     0.166 C 
BRANCH  10  11
HETATM   11  O2  UNL     1      10.865  26.537   0.517  1.00  0.00    -0.391 OA
HETATM   12  H11 UNL     1      10.686  27.010  -0.353  1.00  0.00     0.210 HD
ENDBRANCH  10  11
BRANCH  10  13
HETATM   13  C10 UNL     1      12.081  24.722   1.461  1.00  0.00     0.198 C 
BRANCH  13  14
HETATM   14  O3  UNL     1      11.755  25.465   2.589  1.00  0.00    -0.398 OA
HETATM   15  H14 UNL     1      10.808  25.752   2.588  1.00  0.00     0.209 HD
ENDBRANCH  13  14
ENDBRANCH  10  13
ENDBRANCH   9  10
ENDBRANCH   8   9
ENDBRANCH   7   8
TORSDOF 6
ENDMDL
MODEL 4
REMARK VINA RESULT:      -5.7      2.823      4.860
REMARK  6 active torsions:
REMARK  status: ('A' for Active; 'I' for Inactive)
REMARK    1  A    between atoms: C7_7  and  O1_8 
REMARK    2  A    between atoms: O1_8  and  C8_9 
REMARK    3  A    between atoms: C8_9  and  C9_10 
REMARK    4  A    between atoms: C9_10  and  O2_11 
REMARK    5  A    between atoms: C9_10  and  C10_12 
REMARK    6  A    between atoms: C10_12  and  O3_13 
ROOT
HETATM    1  C1  UNL     1      12.554  28.380  -1.125  1.00  0.00     0.051 C 
HETATM    2  C2  UNL     1      12.120  26.964  -1.246  1.00  0.00    -0.029 A 
HETATM    3  C3  UNL     1      11.953  26.181  -0.122  1.00  0.00     0.009 A 
HETATM    4  C4  UNL     1      11.547  24.865  -0.277  1.00  0.00     0.001 A 
HETATM    5  C5  UNL     1      11.326  24.385  -1.552  1.00  0.00     0.003 A 
HETATM    6  C6  UNL     1      11.500  25.188  -2.674  1.00  0.00     0.037 A 
HETATM    7  C7  UNL     1      11.901  26.492  -2.530  1.00  0.00     0.074 A 
ENDROOT
BRANCH   7   8
HETATM    8  O1  UNL     1      12.074  27.293  -3.642  1.00  0.00    -0.348 OA
BRANCH   8   9
HETATM    9  C8  UNL     1      11.102  28.281  -3.908  1.00  0.00     0.209 C 
BRANCH   9  10
HETATM   10  C9  UNL     1       9.736  27.639  -3.989  1.00  0.00     0.166 C 
BRANCH  10  11
HETATM   11  O2  UNL     1       9.304  27.445  -5.281  1.00  0.00    -0.391 OA
HETATM   12  H11 UNL     1       8.770  28.238  -5.595  1.00  0.00     0.210 HD
ENDBRANCH  10  11
BRANCH  10  13
HETATM   13  C10 UNL     1       8.779  28.512  -3.219  1.00  0.00     0.198 C 
BRANCH  13  14
HETATM   14  O3  UNL     1       9.104  28.456  -1.870  1.00  0.00    -0.398 OA
HETATM   15  H14 UNL     1       9.771  29.142  -1.616  1.00  0.00     0.209 HD
ENDBRANCH  13  14
ENDBRANCH  10  13
ENDBRANCH   9  10
ENDBRANCH   8   9
ENDBRANCH   7   8
TORSDOF 6
ENDMDL
MODEL 5
REMARK VINA RESULT:      -5.7      2.712      4.996
REMARK  6 active torsions:
REMARK  status: ('A' for Active; 'I' for Inactive)
REMARK    1  A    between atoms: C7_7  and  O1_8 
REMARK    2  A    between atoms: O1_8  and  C8_9 
REMARK    3  A    between atoms: C8_9  and  C9_10 
REMARK    4  A    between atoms: C9_10  and  O2_11 
REMARK    5  A    between atoms: C9_10  and  C10_12 
REMARK    6  A    between atoms: C10_12  and  O3_13 
ROOT
HETATM    1  C1  UNL     1      11.195  24.157  -2.982  1.00  0.00     0.051 C 
HETATM    2  C2  UNL     1      11.507  25.035  -1.824  1.00  0.00    -0.029 A 
HETATM    3  C3  UNL     1      11.424  24.554  -0.534  1.00  0.00     0.009 A 
HETATM    4  C4  UNL     1      11.724  25.405   0.518  1.00  0.00     0.001 A 
HETATM    5  C5  UNL     1      12.094  26.704   0.236  1.00  0.00     0.003 A 
HETATM    6  C6  UNL     1      12.173  27.172  -1.071  1.00  0.00     0.037 A 
HETATM    7  C7  UNL     1      11.878  26.338  -2.119  1.00  0.00     0.074 A 
ENDROOT
BRANCH   7   8
HETATM    8  O1  UNL     1      11.955  26.799  -3.419  1.00  0.00    -0.348 OA
BRANCH   8   9
HETATM    9  C8  UNL     1      11.188  27.931  -3.770  1.00  0.00     0.209 C 
BRANCH   9  10
HETATM   10  C9  UNL     1       9.732  27.540  -3.887  1.00  0.00     0.166 C 
BRANCH  10  11
HETATM   11  O2  UNL     1       9.316  27.390  -5.190  1.00  0.00    -0.391 OA
HETATM   12  H11 UNL     1       9.252  28.286  -5.643  1.00  0.00     0.210 HD
ENDBRANCH  10  11
BRANCH  10  13
HETATM   13  C10 UNL     1       8.922  28.591  -3.173  1.00  0.00     0.198 C 
BRANCH  13  14
HETATM   14  O3  UNL     1       9.061  28.413  -1.803  1.00  0.00    -0.398 OA
HETATM   15  H14 UNL     1      10.009  28.343  -1.528  1.00  0.00     0.209 HD
ENDBRANCH  13  14
ENDBRANCH  10  13
ENDBRANCH   9  10
ENDBRANCH   8   9
ENDBRANCH   7   8
TORSDOF 6
ENDMDL
MODEL 6
REMARK VINA RESULT:      -5.7      2.490      4.616
REMARK  6 active torsions:
REMARK  status: ('A' for Active; 'I' for Inactive)
REMARK    1  A    between atoms: C7_7  and  O1_8 
REMARK    2  A    between atoms: O1_8  and  C8_9 
REMARK    3  A    between atoms: C8_9  and  C9_10 
REMARK    4  A    between atoms: C9_10  and  O2_11 
REMARK    5  A    between atoms: C9_10  and  C10_12 
REMARK    6  A    between atoms: C10_12  and  O3_13 
ROOT
HETATM    1  C1  UNL     1       8.618  26.963  -0.584  1.00  0.00     0.051 C 
HETATM    2  C2  UNL     1       9.833  26.111  -0.645  1.00  0.00    -0.029 A 
HETATM    3  C3  UNL     1      10.602  25.901   0.481  1.00  0.00     0.009 A 
HETATM    4  C4  UNL     1      11.729  25.099   0.382  1.00  0.00     0.001 A 
HETATM    5  C5  UNL     1      12.040  24.541  -0.841  1.00  0.00     0.003 A 
HETATM    6  C6  UNL     1      11.254  24.764  -1.966  1.00  0.00     0.037 A 
HETATM    7  C7  UNL     1      10.137  25.555  -1.878  1.00  0.00     0.074 A 
ENDROOT
BRANCH   7   8
HETATM    8  O1  UNL     1       9.353  25.778  -2.993  1.00  0.00    -0.348 OA
BRANCH   8   9
HETATM    9  C8  UNL     1       9.952  26.389  -4.116  1.00  0.00     0.209 C 
BRANCH   9  10
HETATM   10  C9  UNL     1       9.928  27.892  -3.949  1.00  0.00     0.166 C 
BRANCH  10  11
HETATM   11  O2  UNL     1       9.537  28.556  -5.088  1.00  0.00    -0.391 OA
HETATM   12  H11 UNL     1       9.335  29.520  -4.880  1.00  0.00     0.210 HD
ENDBRANCH  10  11
BRANCH  10  13
HETATM   13  C10 UNL     1      11.305  28.320  -3.512  1.00  0.00     0.198 C 
BRANCH  13  14
HETATM   14  O3  UNL     1      11.234  28.808  -2.214  1.00  0.00    -0.398 OA
HETATM   15  H14 UNL     1      12.127  28.902  -1.799  1.00  0.00     0.209 HD
ENDBRANCH  13  14
ENDBRANCH  10  13
ENDBRANCH   9  10
ENDBRANCH   8   9
ENDBRANCH   7   8
TORSDOF 6
ENDMDL
MODEL 7
REMARK VINA RESULT:      -5.6      2.485      5.182
REMARK  6 active torsions:
REMARK  status: ('A' for Active; 'I' for Inactive)
REMARK    1  A    between atoms: C7_7  and  O1_8 
REMARK    2  A    between atoms: O1_8  and  C8_9 
REMARK    3  A    between atoms: C8_9  and  C9_10 
REMARK    4  A    between atoms: C9_10  and  O2_11 
REMARK    5  A    between atoms: C9_10  and  C10_12 
REMARK    6  A    between atoms: C10_12  and  O3_13 
ROOT
HETATM    1  C1  UNL     1      11.489  24.169  -3.019  1.00  0.00     0.051 C 
HETATM    2  C2  UNL     1      11.243  24.824  -1.708  1.00  0.00    -0.029 A 
HETATM    3  C3  UNL     1      12.032  24.530  -0.615  1.00  0.00     0.009 A 
HETATM    4  C4  UNL     1      11.770  25.163   0.590  1.00  0.00     0.001 A 
HETATM    5  C5  UNL     1      10.726  26.064   0.652  1.00  0.00     0.003 A 
HETATM    6  C6  UNL     1       9.940  26.348  -0.460  1.00  0.00     0.037 A 
HETATM    7  C7  UNL     1      10.192  25.727  -1.656  1.00  0.00     0.074 A 
ENDROOT
BRANCH   7   8
HETATM    8  O1  UNL     1       9.414  26.006  -2.763  1.00  0.00    -0.348 OA
BRANCH   8   9
HETATM    9  C8  UNL     1       8.924  27.321  -2.916  1.00  0.00     0.209 C 
BRANCH   9  10
HETATM   10  C9  UNL     1       9.555  27.959  -4.133  1.00  0.00     0.166 C 
BRANCH  10  11
HETATM   11  O2  UNL     1       9.372  27.227  -5.283  1.00  0.00    -0.391 OA
HETATM   12  H11 UNL     1       9.283  27.839  -6.078  1.00  0.00     0.210 HD
ENDBRANCH  10  11
BRANCH  10  13
HETATM   13  C10 UNL     1      11.020  28.150  -3.835  1.00  0.00     0.198 C 
BRANCH  13  14
HETATM   14  O3  UNL     1      11.752  27.222  -4.563  1.00  0.00    -0.398 OA
HETATM   15  H14 UNL     1      11.178  26.526  -4.969  1.00  0.00     0.209 HD
ENDBRANCH  13  14
ENDBRANCH  10  13
ENDBRANCH   9  10
ENDBRANCH   8   9
ENDBRANCH   7   8
TORSDOF 6
ENDMDL
MODEL 8
REMARK VINA RESULT:      -5.6      1.425      1.922
REMARK  6 active torsions:
REMARK  status: ('A' for Active; 'I' for Inactive)
REMARK    1  A    between atoms: C7_7  and  O1_8 
REMARK    2  A    between atoms: O1_8  and  C8_9 
REMARK    3  A    between atoms: C8_9  and  C9_10 
REMARK    4  A    between atoms: C9_10  and  O2_11 
REMARK    5  A    between atoms: C9_10  and  C10_12 
REMARK    6  A    between atoms: C10_12  and  O3_13 
ROOT
HETATM    1  C1  UNL     1       8.100  27.680  -0.457  1.00  0.00     0.051 C 
HETATM    2  C2  UNL     1       8.614  27.665  -1.851  1.00  0.00    -0.029 A 
HETATM    3  C3  UNL     1       8.259  28.655  -2.743  1.00  0.00     0.009 A 
HETATM    4  C4  UNL     1       8.760  28.605  -4.034  1.00  0.00     0.001 A 
HETATM    5  C5  UNL     1       9.596  27.562  -4.380  1.00  0.00     0.003 A 
HETATM    6  C6  UNL     1       9.943  26.572  -3.468  1.00  0.00     0.037 A 
HETATM    7  C7  UNL     1       9.453  26.614  -2.188  1.00  0.00     0.074 A 
ENDROOT
BRANCH   7   8
HETATM    8  O1  UNL     1       9.796  25.632  -1.279  1.00  0.00    -0.348 OA
BRANCH   8   9
HETATM    9  C8  UNL     1      11.139  25.198  -1.244  1.00  0.00     0.209 C 
BRANCH   9  10
HETATM   10  C9  UNL     1      11.929  26.069  -0.295  1.00  0.00     0.166 C 
BRANCH  10  11
HETATM   11  O2  UNL     1      11.148  26.673   0.663  1.00  0.00    -0.391 OA
HETATM   12  H11 UNL     1      11.710  27.262   1.254  1.00  0.00     0.210 HD
ENDBRANCH  10  11
BRANCH  10  13
HETATM   13  C10 UNL     1      12.664  27.091  -1.124  1.00  0.00     0.198 C 
BRANCH  13  14
HETATM   14  O3  UNL     1      12.140  28.349  -0.856  1.00  0.00    -0.398 OA
HETATM   15  H14 UNL     1      12.847  29.034  -0.749  1.00  0.00     0.209 HD
ENDBRANCH  13  14
ENDBRANCH  10  13
ENDBRANCH   9  10
ENDBRANCH   8   9
ENDBRANCH   7   8
TORSDOF 6
ENDMDL
MODEL 9
REMARK VINA RESULT:      -5.5      1.365      2.331
REMARK  6 active torsions:
REMARK  status: ('A' for Active; 'I' for Inactive)
REMARK    1  A    between atoms: C7_7  and  O1_8 
REMARK    2  A    between atoms: O1_8  and  C8_9 
REMARK    3  A    between atoms: C8_9  and  C9_10 
REMARK    4  A    between atoms: C9_10  and  O2_11 
REMARK    5  A    between atoms: C9_10  and  C10_12 
REMARK    6  A    between atoms: C10_12  and  O3_13 
ROOT
HETATM    1  C1  UNL     1       9.891  24.663  -3.112  1.00  0.00     0.051 C 
HETATM    2  C2  UNL     1       9.527  26.103  -3.145  1.00  0.00    -0.029 A 
HETATM    3  C3  UNL     1       9.573  26.813  -4.327  1.00  0.00     0.009 A 
HETATM    4  C4  UNL     1       9.227  28.155  -4.316  1.00  0.00     0.001 A 
HETATM    5  C5  UNL     1       8.849  28.732  -3.120  1.00  0.00     0.003 A 
HETATM    6  C6  UNL     1       8.808  28.001  -1.938  1.00  0.00     0.037 A 
HETATM    7  C7  UNL     1       9.149  26.673  -1.939  1.00  0.00     0.074 A 
ENDROOT
BRANCH   7   8
HETATM    8  O1  UNL     1       9.110  25.943  -0.767  1.00  0.00    -0.348 OA
BRANCH   8   9
HETATM    9  C8  UNL     1      10.033  26.269   0.251  1.00  0.00     0.209 C 
BRANCH   9  10
HETATM   10  C9  UNL     1      11.248  25.378   0.137  1.00  0.00     0.166 C 
BRANCH  10  11
HETATM   11  O2  UNL     1      11.728  24.959   1.356  1.00  0.00    -0.391 OA
HETATM   12  H11 UNL     1      11.593  23.967   1.464  1.00  0.00     0.210 HD
ENDBRANCH  10  11
BRANCH  10  13
HETATM   13  C10 UNL     1      12.298  26.140  -0.631  1.00  0.00     0.198 C 
BRANCH  13  14
HETATM   14  O3  UNL     1      12.006  27.496  -0.566  1.00  0.00    -0.398 OA
HETATM   15  H14 UNL     1      11.244  27.688   0.035  1.00  0.00     0.209 HD
ENDBRANCH  13  14
ENDBRANCH  10  13
ENDBRANCH   9  10
ENDBRANCH   8   9
ENDBRANCH   7   8
TORSDOF 6
ENDMDL
