REMARK  7 active torsions:
REMARK  status: ('A' for Active; 'I' for Inactive)
REMARK    1  A    between atoms: N1_4  and  C4_5 
REMARK    2  A    between atoms: C4_5  and  C5_6 
REMARK    3  A    between atoms: C5_6  and  N2_8 
REMARK    4  A    between atoms: C11_16  and  C12_17 
REMARK    5  A    between atoms: C12_17  and  C13_18 
REMARK    6  A    between atoms: C21_28  and  C22_29 
REMARK    7  A    between atoms: C22_29  and  N5_30 
ROOT
HETATM    1  C1  UNL     1      -2.299   3.183   3.846  1.00  0.00     0.044 C 
HETATM    2  C2  UNL     1      -2.677   2.259   2.711  1.00  0.00     0.233 C 
HETATM    3  C3  UNL     1      -1.545   1.504   2.147  1.00  0.00     0.153 C 
HETATM    4  N1  UNL     1      -1.587   1.109   0.788  1.00  0.00    -0.394 N 
HETATM    5  C21 UNL     1      -2.410   1.840  -0.103  1.00  0.00     0.125 C 
HETATM    6  C31 UNL     1      -3.710   2.233   0.557  1.00  0.00     0.296 C 
HETATM    7  N6  UNL     1      -3.472   3.015   1.763  1.00  0.00     0.091 N 
HETATM    8  H33 UNL     1      -4.437   3.193   2.178  1.00  0.00     0.316 HD
ENDROOT
BRANCH   4   9
HETATM    9  C4  UNL     1      -0.279   0.794   0.241  1.00  0.00     0.220 C 
BRANCH   9  10
HETATM   10  C5  UNL     1       0.588   1.950   0.099  1.00  0.00     0.241 C 
HETATM   11  O1  UNL     1       0.115   3.064   0.476  1.00  0.00    -0.271 OA
BRANCH  10  12
HETATM   12  N2  UNL     1       1.892   1.925  -0.418  1.00  0.00    -0.313 N 
HETATM   13  C6  UNL     1       2.738   3.123  -0.509  1.00  0.00     0.147 C 
HETATM   14  C7  UNL     1       3.820   2.816  -1.488  1.00  0.00     0.018 C 
HETATM   15  C8  UNL     1       3.502   3.334  -2.884  1.00  0.00     0.023 C 
HETATM   16  C9  UNL     1       5.145   3.387  -1.069  1.00  0.00     0.023 C 
HETATM   17  C10 UNL     1       3.815   1.334  -1.566  1.00  0.00     0.093 A 
HETATM   18  N3  UNL     1       4.690   0.488  -2.119  1.00  0.00    -0.151 NA
HETATM   19  C20 UNL     1       2.680   0.860  -0.937  1.00  0.00     0.066 A 
HETATM   20  N4  UNL     1       4.495  -0.827  -2.082  1.00  0.00    -0.154 NA
HETATM   21  C11 UNL     1       3.422  -1.376  -1.494  1.00  0.00     0.063 A 
HETATM   22  C19 UNL     1       2.506  -0.498  -0.914  1.00  0.00     0.061 A 
BRANCH  21  23
HETATM   23  C12 UNL     1       3.199  -2.839  -1.444  1.00  0.00     0.102 C 
BRANCH  23  24
HETATM   24  C13 UNL     1       3.775  -3.381  -0.179  1.00  0.00    -0.014 A 
HETATM   25  C14 UNL     1       2.960  -3.729   0.871  1.00  0.00     0.013 A 
HETATM   26  C15 UNL     1       3.501  -4.226   2.033  1.00  0.00     0.043 A 
HETATM   27  C16 UNL     1       4.869  -4.368   2.125  1.00  0.00     0.119 A 
HETATM   28  F1  UNL     1       5.383  -4.860   3.281  1.00  0.00    -0.206 F 
HETATM   29  C17 UNL     1       5.709  -4.020   1.070  1.00  0.00     0.085 A 
HETATM   30  C18 UNL     1       5.128  -3.527  -0.074  1.00  0.00     0.126 A 
HETATM   31  F2  UNL     1       5.903  -3.168  -1.147  1.00  0.00    -0.205 F 
ENDBRANCH  23  24
ENDBRANCH  21  23
ENDBRANCH  10  12
ENDBRANCH   9  10
ENDBRANCH   4   9
BRANCH   5  32
HETATM   32  C22 UNL     1      -2.745   0.999  -1.312  1.00  0.00     0.153 C 
BRANCH  32  33
HETATM   33  N5  UNL     1      -3.464  -0.221  -0.983  1.00  0.00    -0.342 N 
HETATM   34  C23 UNL     1      -2.923  -1.510  -0.619  1.00  0.00     0.169 A 
HETATM   35  C24 UNL     1      -4.092  -2.369  -0.309  1.00  0.00     0.014 A 
HETATM   36  C25 UNL     1      -4.190  -3.690   0.129  1.00  0.00     0.125 A 
HETATM   37  C29 UNL     1      -5.259  -1.673  -0.529  1.00  0.00     0.043 A 
HETATM   38  F3  UNL     1      -3.022  -4.349   0.339  1.00  0.00    -0.205 F 
HETATM   39  C26 UNL     1      -5.423  -4.275   0.331  1.00  0.00     0.043 A 
HETATM   40  C27 UNL     1      -6.602  -3.593   0.115  1.00  0.00     0.004 A 
HETATM   41  C28 UNL     1      -6.501  -2.289  -0.317  1.00  0.00     0.018 A 
HETATM   42  C30 UNL     1      -4.876  -0.333  -0.952  1.00  0.00     0.254 A 
HETATM   43  O2  UNL     1      -5.738   0.561  -1.240  1.00  0.00    -0.267 OA
ENDBRANCH  32  33
ENDBRANCH   5  32
TORSDOF 6
