192816
  -OEChem-02102404083D

 42 44  0     1  0  0  0  0  0999 V2000
    0.1872   -1.4516    2.6398 O   0  0  0  0  0  0  0  0  0  0  0  0
   -0.1871   -1.4507   -2.6401 O   0  0  0  0  0  0  0  0  0  0  0  0
    6.7351    2.1869   -0.8441 O   0  0  0  0  0  0  0  0  0  0  0  0
   -6.7350    2.1867    0.8445 O   0  0  0  0  0  0  0  0  0  0  0  0
   -1.0985   -1.3026    0.7365 N   0  0  0  0  0  0  0  0  0  0  0  0
    1.0984   -1.3028   -0.7367 N   0  0  0  0  0  0  0  0  0  0  0  0
   -1.2533   -0.7172   -0.5872 C   0  0  2  0  0  0  0  0  0  0  0  0
    1.2533   -0.7174    0.5869 C   0  0  2  0  0  0  0  0  0  0  0  0
   -2.6026   -1.0700   -1.1919 C   0  0  0  0  0  0  0  0  0  0  0  0
    2.6025   -1.0702    1.1916 C   0  0  0  0  0  0  0  0  0  0  0  0
    0.0976   -1.2320    1.4343 C   0  0  0  0  0  0  0  0  0  0  0  0
   -0.0976   -1.2318   -1.4345 C   0  0  0  0  0  0  0  0  0  0  0  0
   -3.7060   -0.2002   -0.6481 C   0  0  0  0  0  0  0  0  0  0  0  0
    3.7058   -0.2002    0.6480 C   0  0  0  0  0  0  0  0  0  0  0  0
   -4.3953   -0.6028    0.4862 C   0  0  0  0  0  0  0  0  0  0  0  0
    4.3954   -0.6027   -0.4863 C   0  0  0  0  0  0  0  0  0  0  0  0
   -4.0155    0.9900   -1.2903 C   0  0  0  0  0  0  0  0  0  0  0  0
    4.0154    0.9898    1.2904 C   0  0  0  0  0  0  0  0  0  0  0  0
   -5.4171    0.2025    0.9896 C   0  0  0  0  0  0  0  0  0  0  0  0
    5.4172    0.2026   -0.9894 C   0  0  0  0  0  0  0  0  0  0  0  0
   -5.0371    1.7953   -0.7869 C   0  0  0  0  0  0  0  0  0  0  0  0
    5.0370    1.7952    0.7872 C   0  0  0  0  0  0  0  0  0  0  0  0
    5.7380    1.4016   -0.3528 C   0  0  0  0  0  0  0  0  0  0  0  0
   -5.7380    1.4016    0.3532 C   0  0  0  0  0  0  0  0  0  0  0  0
   -1.1277    0.3692   -0.4917 H   0  0  0  0  0  0  0  0  0  0  0  0
    1.1276    0.3690    0.4914 H   0  0  0  0  0  0  0  0  0  0  0  0
   -2.5878   -0.9493   -2.2831 H   0  0  0  0  0  0  0  0  0  0  0  0
   -2.8445   -2.1288   -1.0263 H   0  0  0  0  0  0  0  0  0  0  0  0
    2.5876   -0.9497    2.2829 H   0  0  0  0  0  0  0  0  0  0  0  0
    2.8445   -2.1289    1.0258 H   0  0  0  0  0  0  0  0  0  0  0  0
   -1.9234   -1.5833    1.2565 H   0  0  0  0  0  0  0  0  0  0  0  0
    1.9233   -1.5835   -1.2568 H   0  0  0  0  0  0  0  0  0  0  0  0
   -4.1636   -1.5387    0.9860 H   0  0  0  0  0  0  0  0  0  0  0  0
    4.1637   -1.5385   -0.9861 H   0  0  0  0  0  0  0  0  0  0  0  0
   -3.4740    1.3068   -2.1771 H   0  0  0  0  0  0  0  0  0  0  0  0
    3.4739    1.3066    2.1773 H   0  0  0  0  0  0  0  0  0  0  0  0
   -5.9610   -0.1107    1.8766 H   0  0  0  0  0  0  0  0  0  0  0  0
    5.9573   -0.1164   -1.8769 H   0  0  0  0  0  0  0  0  0  0  0  0
   -5.2769    2.7273   -1.2916 H   0  0  0  0  0  0  0  0  0  0  0  0
    5.2819    2.7284    1.2872 H   0  0  0  0  0  0  0  0  0  0  0  0
    7.1104    1.7620   -1.6345 H   0  0  0  0  0  0  0  0  0  0  0  0
   -6.8213    2.9754    0.2818 H   0  0  0  0  0  0  0  0  0  0  0  0
  1 11  2  0  0  0  0
  2 12  2  0  0  0  0
  3 23  1  0  0  0  0
  3 41  1  0  0  0  0
  4 24  1  0  0  0  0
  4 42  1  0  0  0  0
  5  7  1  0  0  0  0
  5 11  1  0  0  0  0
  5 31  1  0  0  0  0
  6  8  1  0  0  0  0
  6 12  1  0  0  0  0
  6 32  1  0  0  0  0
  7  9  1  0  0  0  0
  7 12  1  0  0  0  0
  7 25  1  0  0  0  0
  8 10  1  0  0  0  0
  8 11  1  0  0  0  0
  8 26  1  0  0  0  0
  9 13  1  0  0  0  0
  9 27  1  0  0  0  0
  9 28  1  0  0  0  0
 10 14  1  0  0  0  0
 10 29  1  0  0  0  0
 10 30  1  0  0  0  0
 13 15  2  0  0  0  0
 13 17  1  0  0  0  0
 14 16  2  0  0  0  0
 14 18  1  0  0  0  0
 15 19  1  0  0  0  0
 15 33  1  0  0  0  0
 16 20  1  0  0  0  0
 16 34  1  0  0  0  0
 17 21  2  0  0  0  0
 17 35  1  0  0  0  0
 18 22  2  0  0  0  0
 18 36  1  0  0  0  0
 19 24  2  0  0  0  0
 19 37  1  0  0  0  0
 20 23  2  0  0  0  0
 20 38  1  0  0  0  0
 21 24  1  0  0  0  0
 21 39  1  0  0  0  0
 22 23  1  0  0  0  0
 22 40  1  0  0  0  0
M  END
> <PUBCHEM_COMPOUND_CID>
192816

> <PUBCHEM_CONFORMER_RMSD>
0.8

> <PUBCHEM_CONFORMER_DIVERSEORDER>
6
28
60
31
26
66
62
55
46
23
41
49
35
2
33
16
44
12
19
17
4
18
67
25
36
47
30
56
37
14
51
11
13
61
63
34
43
29
8
24
32
15
57
9
3
50
27
65
64
45
52
1
10
58
20
7
22
59
48
38
21
53
42
5
40
68
54
39

> <PUBCHEM_MMFF94_PARTIAL_CHARGES>
36
1 -0.57
10 0.14
11 0.57
12 0.57
13 -0.14
14 -0.14
15 -0.15
16 -0.15
17 -0.15
18 -0.15
19 -0.15
2 -0.57
20 -0.15
21 -0.15
22 -0.15
23 0.08
24 0.08
3 -0.53
31 0.37
32 0.37
33 0.15
34 0.15
35 0.15
36 0.15
37 0.15
38 0.15
39 0.15
4 -0.53
40 0.15
41 0.45
42 0.45
5 -0.73
6 -0.73
7 0.36
8 0.36
9 0.14

> <PUBCHEM_EFFECTIVE_ROTOR_COUNT>
4.8

> <PUBCHEM_PHARMACOPHORE_FEATURES>
9
1 1 acceptor
1 2 acceptor
1 3 donor
1 4 donor
1 5 donor
1 6 donor
6 13 15 17 19 21 24 rings
6 14 16 18 20 22 23 rings
6 5 6 7 8 11 12 rings

> <PUBCHEM_HEAVY_ATOM_COUNT>
24

> <PUBCHEM_ATOM_DEF_STEREO_COUNT>
0

> <PUBCHEM_ATOM_UDEF_STEREO_COUNT>
2

> <PUBCHEM_BOND_DEF_STEREO_COUNT>
0

> <PUBCHEM_BOND_UDEF_STEREO_COUNT>
0

> <PUBCHEM_ISOTOPIC_ATOM_COUNT>
0

> <PUBCHEM_COMPONENT_COUNT>
1

> <PUBCHEM_CACTVS_TAUTO_COUNT>
10

> <PUBCHEM_CONFORMER_ID>
0002F13000000006

> <PUBCHEM_MMFF94_ENERGY>
75.9642

> <PUBCHEM_FEATURE_SELFOVERLAP>
45.682

> <PUBCHEM_SHAPE_FINGERPRINT>
10 15 16515685529031773277
105312 117 17774999124236881039
10670039 82 17274830120672662024
10692045 39 17459170938225829706
10693767 8 13758071844633491309
11796584 16 9223235143779044365
12596602 18 15574710279098607605
12633257 1 16733539541907703622
12670543 26 15769779043602416975
12892183 10 17024021571738827719
12895836 83 17988074603796642750
12895837 130 18124874827361345460
12954195 1 13973702593432362611
13690498 29 16270222998188628847
13955234 65 17532080610572955586
14251751 18 9007046972660483741
14341114 328 18113894953346843249
14347329 18 17703788060000507945
14508225 48 14908187477603116898
14840074 17 18342177748166611097
14848160 23 8502655895879165156
15052358 14 14836405830502173005
15183329 4 15339122329251002557
15188451 53 8502378819186498356
15575132 122 18270397183956758257
16752209 62 15769784546094300922
17857418 61 10519993672831053172
17980427 23 17604153717869102447
18222031 100 12175621798036301466
19377110 9 15864070974788623283
2026 5 10231759968244165989
20567600 247 10303813168070964469
20621476 91 13984665867017541049
21033648 29 18201429333223863984
21307412 95 13973691662803923860
21623969 137 11746932097044086640
21756936 100 18334569191688599562
22079108 93 17749106707597331754
22224240 67 17022904558277537411
22393880 68 15266759067387069463
23379529 103 12749513051895687357
23536364 44 14764351483897202571
2838139 119 18343008974245179788
2916195 48 18114180847581150787
29717793 49 11887665178657291955
3004659 81 15339121247620643112
3014063 24 10159700179271558648
392239 28 17313385647305179629
4058900 60 17488756575415378879
439807 62 9654992482809665113
5104073 3 15647600151983193145
57527585 21 17771041832272385949
57724786 102 18057322782701851175
59682541 52 14333127425672354989
8988823 20 8142073269996585022
960060 61 14764343877499525672
9689198 14 18410022034614887425

> <PUBCHEM_SHAPE_MULTIPOLES>
460.47
16.55
2.02
1.82
0
0.81
0
14.19
0
0
0
0
-0.72
-0.47

> <PUBCHEM_SHAPE_SELFOVERLAP>
995.001

> <PUBCHEM_SHAPE_VOLUME>
250.3

> <PUBCHEM_COORDINATE_TYPE>
2
5
10

$$$$
